VERS 100414 2031 23116
MODE SEQ
NAME 
UNIT MM X W X CM MR CPMM
FLOA
ENVD 2.0E+1 1 0
GFAC 0 0
GCAT SCHOTT
RAIM 0 0 1 1 0 0 0 0 0
PUSH 0 0 0 0 0 0
SDMA 0 1 0
FTYP 0 0 5 3 0 0 0
ROPD 2
PICB 1
XFLD 0 0 0 2.25 4.5
XFLN 0 0 0 2.25 4.5 5.0E-1 5.0 0 0 0 0 0
YFLD 0 2.25 4.5 0 0
YFLN 0 2.25 4.5 0 0 2.5 5.0 7.0 0 0 0 0
FWGT 1 2 4.0 2 4.0
FWGN 1 2 4.0 2 4.0 1 1 1 1 1 1 1
ZVDX 0 0 0 0 0
VDXN 0 0 0 0 0 0 0 0 0 0 0 0
ZVDY 0 0 0 0 0
VDYN 0 0 0 0 0 0 0 0 0 0 0 0
ZVCX 0 0 0 0 0
VCXN 0 0 0 0 0 0 0 0 0 0 0 0
ZVCY 0 0 0 0 0
VCYN 0 0 0 0 0 0 0 0 0 0 0 0
ZVAN 0 0 0 0 0
VANN 0 0 0 0 0 0 0 0 0 0 0 0
WAVL 3.5E-1 4.0E-1 4.5E-1
WAVN 3.5E-1 4.0E-1 4.5E-1 5.5E-1 5.5E-1 5.5E-1 5.5E-1 5.5E-1 5.5E-1 5.5E-1 5.5E-1 5.5E-1
WWGT 1 1 1
WWGN 1 1 1 1 1 1 1 1 1 1 1 1
WAVM 1 3.5E-1 1
WAVM 2 4.0E-1 1
WAVM 3 4.5E-1 1
WAVM 4 5.5E-1 1
WAVM 5 5.5E-1 1
WAVM 6 5.5E-1 1
WAVM 7 5.5E-1 1
WAVM 8 5.5E-1 1
WAVM 9 5.5E-1 1
WAVM 10 5.5E-1 1
WAVM 11 5.5E-1 1
WAVM 12 5.5E-1 1
WAVM 13 5.5E-1 1
WAVM 14 5.5E-1 1
WAVM 15 5.5E-1 1
WAVM 16 5.5E-1 1
WAVM 17 5.5E-1 1
WAVM 18 5.5E-1 1
WAVM 19 5.5E-1 1
WAVM 20 5.5E-1 1
WAVM 21 5.5E-1 1
WAVM 22 5.5E-1 1
WAVM 23 5.5E-1 1
WAVM 24 5.5E-1 1
PWAV 1
POLS 1 0 1 0 0 1 0
GLRS 3 0
GSTD 0 100.000 100.000 100.000 100.000 100.000 100.000 0 1 1 0 0 1 1 1 1 1 1
NSCD 100 500 0 1.0E-3 5 1.0E-6 0 0 0 0 0 0 1000000 0
COFN COATING.DAT SCATTER_PROFILE.DAT ABG_DATA.DAT PROFILE.GRD
SURF 0
  TYPE STANDARD
  CURV 0.0 0 0 0 0 ""
  HIDE 0 0 0 0 0 0 0 0 0 0
  MIRR 2 0
  SLAB 3
  DISZ 1.0E+7
  DIAM 7.880795412883E+5 0 0 0 1 ""
  POPS 0 0 0 0 0 0 0 0 1 1 1 1 0 0 0
SURF 1
  COMM nominal entrance
  TYPE STANDARD
  CURV 0.0 0 0 0 0 ""
  HIDE 0 0 1 0 0 0 0 0 0 0
  MIRR 2 0
  SLAB 5
  DISZ 1.0E+4
  DIAM 3.059776682218E+3 0 0 0 1 ""
  POPS 0 0 0 0 0 0 0 0 1 1 1 1 0 0 0
SURF 2
  COMM M2 obscuration
  TYPE STANDARD
  CURV 0.0 0 0 0 0 ""
  HIDE 0 0 1 0 0 0 0 0 0 0
  MIRR 2 0
  SLAB 6
  DISZ 3.5E+3
  DIAM 2.274756917612E+3 0 0 0 1 ""
  POPS 0 0 0 0 0 0 0 0 1 1 1 1 0 0 0
  OBSC 0 1.0E+3 0
SURF 3
  COMM M1
  STOP
  TYPE EVENASPH
  CURV 0.0 0 0 0 0 ""
  HIDE 0 0 0 0 0 0 0 0 0 0
  MIRR 2 0
  SLAB 4
  PARM 1 -5.428025501655E-5
  VPAR 1
  PARM 2 -3.391287932402E-13
  VPAR 2
  PARM 3 1.345135855301E-18
  VPAR 3
  PARM 4 -1.290003457887E-24
  VPAR 4
  PARM 5 6.850814216649E-31
  VPAR 5
  PARM 6 -2.00597215269E-37
  VPAR 6
  PARM 7 3.056333604156E-44
  VPAR 7
  PARM 8 -1.885330097265E-51
  VPAR 8
  DISZ -3.050380601729E+3
  GLAS MIRROR 0 0 1.5 4.0E+1 0 0 0 0 0 0 
  VDSZ 0 0
  DIAM 2.0E+3 1 0 0 1 ""
  POPS 0 0 0 0 0 0 0 0 1 1 1 1 0 0 0
  FLAP 0 2.0E+3 0
SURF 4
  COMM Detector obscuration
  TYPE STANDARD
  CURV 0.0 0 0 0 0 ""
  HIDE 0 0 1 0 0 0 0 0 0 0
  MIRR 2 0
  SLAB 7
  DISZ 0
  DIAM 1.082974401407E+3 0 0 0 1 ""
  POPS 0 0 0 0 0 0 0 0 1 1 1 1 0 0 0
  OBSC 0 1.85E+2 0
SURF 5
  TYPE STANDARD
  CURV 0.0 0 0 0 0 ""
  HIDE 0 0 1 0 0 0 0 0 0 0
  MIRR 2 0
  SLAB 7
  DISZ -5.1069419297E+2
  VDSZ 0 0
  DIAM 1.082974401407E+3 0 0 0 1 ""
  POPS 0 0 0 0 0 0 0 0 1 1 1 1 0 0 0
SURF 6
  COMM M2
  TYPE EVENASPH
  CURV 0.0 0 0 0 0 ""
  HIDE 0 0 0 0 0 0 0 0 0 0
  MIRR 2 0
  SLAB 1
  PARM 1 2.435032993872E-4
  VPAR 1
  PARM 2 3.879414390094E-11
  VPAR 2
  PARM 3 -1.311115390471E-16
  VPAR 3
  PARM 4 2.883093943933E-22
  VPAR 4
  PARM 5 -3.978197053735E-28
  VPAR 5
  PARM 6 3.337128933927E-34
  VPAR 6
  PARM 7 -1.542122960972E-40
  VPAR 7
  PARM 8 2.987864966276E-47
  VPAR 8
  DISZ 5.1069419297E+2
  GLAS MIRROR 0 0 1.5 4.0E+1 0 0 0 0 0 0 
  PZUP 5.0 -1. 0 0
  DIAM 1.000882939584E+3 0 0 0 1 ""
  POPS 0 0 0 0 0 0 0 0 1 1 1 1 0 0 0
SURF 7
  COMM Detector
  TYPE STANDARD
  CURV 1.000000000000000000E-003 0 0 0 0 ""
  HIDE 0 0 0 0 0 0 0 0 0 0
  MIRR 2 0
  SLAB 2
  DISZ 0
  DIAM 1.809042159651E+2 0 0 0 1 ""
  POPS 0 0 0 0 0 0 0 0 1 1 1 1 0 0 0
BLNK EFFL for information only, no weight on this one !
EFFL 0 1 0 0 0 0 0 0 0 0
BLNK Focal plane locations for object field angles to match plate scale of
REAR 7 1 1 0 0 0 1.575E+2 1 0 0
REAR 7 1 0 1 0 0 1.575E+2 1 0 0
REAR 7 1 5.0E-1 0 0 0 7.875E+1 1 0 0
REAR 7 1 0 5.0E-1 0 0 7.875E+1 1 0 0
BLNK Beam tilt limits
RANG 7 1 1 0 1 0 1 1 0 0
RANG 7 1 0 1 0 1 1 1 0 0
BLNK M2 diameter limit
DMLT 6 1 0 0 0 0 2.0E+3 1 0 0
BLNK Focal plane curvature control
MXCV 7 7 0 0 0 0 8.0E-4 1 0 0
BLNK Some test variables on focal ratio etc.
WFNO 0 0 0 0 0 0 0 0 0 0
SFNO 1 1 0 0 0 0 0 0 0 0
TFNO 1 1 0 0 0 0 0 0 0 0
EPDI 0 0 0 0 0 0 0 0 0 0
EXPD 0 0 0 0 0 0 0 0 0 0
ISFN 0 0 0 0 0 0 0 0 0 0
ISNA 0 0 0 0 0 0 0 0 0 0
LINV 0 1 0 0 0 0 0 0 0 0
OBSN 0 0 0 0 0 0 0 0 0 0
BLNK Distortion control
DISC 0 1 0 0 0 0 0 1 0 0
DIMX 3 1 0 0 1 0 0 1 0 0
DMFS 0 0 0 0 0 0 0 0 0 0
BLNK Default merit function: PTV spot radius centroid GQ 20 rings 10 arms
BLNK No default air thickness boundary constraints.
BLNK No default glass thickness boundary constraints.
BLNK Operands for field 1.
TRAC 0 1 0 0 2.365502003318E-2 7.280266572767E-2 0 6.666666666667E-2 0 0
TRAC 0 1 0 0 4.71712230028E-2 1.451780964642E-1 0 6.666666666667E-2 0 0
TRAC 0 1 0 0 7.041060647903E-2 2.16701564403E-1 0 6.666666666667E-2 0 0
TRAC 0 1 0 0 9.32367925189E-2 2.869533413944E-1 0 6.666666666667E-2 0 0
TRAC 0 1 0 0 1.155158279863E-1 3.555211620765E-1 0 6.666666666667E-2 0 0
TRAC 0 1 0 0 1.371169706422E-1 4.220026432128E-1 0 6.666666666667E-2 0 0
TRAC 0 1 0 0 1.579134563922E-1 4.860076450367E-1 0 6.666666666667E-2 0 0
TRAC 0 1 0 0 1.777832431886E-1 5.471605607471E-1 0 6.666666666667E-2 0 0
TRAC 0 1 0 0 1.966097272215E-1 6.051025207182E-1 0 6.666666666667E-2 0 0
TRAC 0 1 0 0 2.142824271967E-1 6.594934984893E-1 0 6.666666666667E-2 0 0
TRAC 0 1 0 0 2.306976326835E-1 7.100143061752E-1 0 6.666666666667E-2 0 0
TRAC 0 1 0 0 2.457590127287E-1 7.563684675877E-1 0 6.666666666667E-2 0 0
TRAC 0 1 0 0 2.593781811655E-1 7.982839580756E-1 0 6.666666666667E-2 0 0
TRAC 0 1 0 0 2.714752152981E-1 8.35514800874E-1 0 6.666666666667E-2 0 0
TRAC 0 1 0 0 2.819791249199E-1 8.678425105929E-1 0 6.666666666667E-2 0 0
TRAC 0 1 0 0 2.908282689125E-1 8.950773753773E-1 0 6.666666666667E-2 0 0
TRAC 0 1 0 0 2.979707169805E-1 9.170595702111E-1 0 6.666666666667E-2 0 0
TRAC 0 1 0 0 3.033645543983E-1 9.336600948342E-1 0 6.666666666667E-2 0 0
TRAC 0 1 0 0 3.069781279833E-1 9.447815307672E-1 0 6.666666666667E-2 0 0
TRAC 0 1 0 0 3.087902318489E-1 9.503586130017E-1 0 6.666666666667E-2 0 0
TRAC 0 1 0 0 6.192964645143E-2 4.49945218913E-2 0 6.666666666667E-2 0 0
TRAC 0 1 0 0 1.234958651122E-1 8.972499803686E-2 0 6.666666666667E-2 0 0
TRAC 0 1 0 0 1.843373609306E-1 1.339289322164E-1 0 6.666666666667E-2 0 0
TRAC 0 1 0 0 2.440970918165E-1 1.773469181671E-1 0 6.666666666667E-2 0 0
TRAC 0 1 0 0 3.024243639067E-1 2.197241618832E-1 0 6.666666666667E-2 0 0
TRAC 0 1 0 0 3.589768895757E-1 2.608119768478E-1 0 6.666666666667E-2 0 0
TRAC 0 1 0 0 4.134227961158E-1 3.00369243425E-1 0 6.666666666667E-2 0 0
TRAC 0 1 0 0 4.654425732979E-1 3.381638238452E-1 0 6.666666666667E-2 0 0
TRAC 0 1 0 0 5.147309483848E-1 3.739739244821E-1 0 6.666666666667E-2 0 0
TRAC 0 1 0 0 5.609986775928E-1 4.07589397426E-1 0 6.666666666667E-2 0 0
TRAC 0 1 0 0 6.039742434894E-1 4.388129737149E-1 0 6.666666666667E-2 0 0
TRAC 0 1 0 0 6.434054483654E-1 4.674614209879E-1 0 6.666666666667E-2 0 0
TRAC 0 1 0 0 6.790608942315E-1 4.933666187645E-1 0 6.666666666667E-2 0 0
TRAC 0 1 0 0 7.107313407535E-1 5.163765450437E-1 0 6.666666666667E-2 0 0
TRAC 0 1 0 0 7.382309331581E-1 5.363561684285E-1 0 6.666666666667E-2 0 0
TRAC 0 1 0 0 7.613982929023E-1 5.531882405442E-1 0 6.666666666667E-2 0 0
TRAC 0 1 0 0 7.80097464707E-1 5.667739840988E-1 0 6.666666666667E-2 0 0
TRAC 0 1 0 0 7.942187143967E-1 5.77033672547E-1 0 6.666666666667E-2 0 0
TRAC 0 1 0 0 8.036791728632E-1 5.839070979573E-1 0 6.666666666667E-2 0 0
TRAC 0 1 0 0 8.084233223743E-1 5.873539243363E-1 0 6.666666666667E-2 0 0
TRAC 0 1 0 0 7.65492528365E-2 0 0 6.666666666667E-2 0 0
TRAC 0 1 0 0 1.526492842189E-1 0 0 6.666666666667E-2 0 0
TRAC 0 1 0 0 2.278535089031E-1 0 0 6.666666666667E-2 0 0
TRAC 0 1 0 0 3.017205985952E-1 0 0 6.666666666667E-2 0 0
TRAC 0 1 0 0 3.738170718408E-1 0 0 6.666666666667E-2 0 0
TRAC 0 1 0 0 4.43719837867E-1 0 0 6.666666666667E-2 0 0
TRAC 0 1 0 0 5.110186794471E-1 0 0 6.666666666667E-2 0 0
TRAC 0 1 0 0 5.753186602186E-1 0 0 6.666666666667E-2 0 0
TRAC 0 1 0 0 6.362424423266E-1 0 0 6.666666666667E-2 0 0
TRAC 0 1 0 0 6.934325007922E-1 0 0 6.666666666667E-2 0 0
TRAC 0 1 0 0 7.46553221612E-1 0 0 6.666666666667E-2 0 0
TRAC 0 1 0 0 7.952928712734E-1 0 0 6.666666666667E-2 0 0
TRAC 0 1 0 0 8.393654261319E-1 0 0 6.666666666667E-2 0 0
TRAC 0 1 0 0 8.785122509109E-1 0 0 6.666666666667E-2 0 0
TRAC 0 1 0 0 9.125036164766E-1 0 0 6.666666666667E-2 0 0
TRAC 0 1 0 0 9.411400479796E-1 0 0 6.666666666667E-2 0 0
TRAC 0 1 0 0 9.642534954531E-1 0 0 6.666666666667E-2 0 0
TRAC 0 1 0 0 9.817083199969E-1 0 0 6.666666666667E-2 0 0
TRAC 0 1 0 0 9.934020897597E-1 0 0 6.666666666667E-2 0 0
TRAC 0 1 0 0 9.992661810508E-1 0 0 6.666666666667E-2 0 0
TRAC 0 1 0 0 6.192964645143E-2 -4.49945218913E-2 0 6.666666666667E-2 0 0
TRAC 0 1 0 0 1.234958651122E-1 -8.972499803686E-2 0 6.666666666667E-2 0 0
TRAC 0 1 0 0 1.843373609306E-1 -1.339289322164E-1 0 6.666666666667E-2 0 0
TRAC 0 1 0 0 2.440970918165E-1 -1.773469181671E-1 0 6.666666666667E-2 0 0
TRAC 0 1 0 0 3.024243639067E-1 -2.197241618832E-1 0 6.666666666667E-2 0 0
TRAC 0 1 0 0 3.589768895757E-1 -2.608119768478E-1 0 6.666666666667E-2 0 0
TRAC 0 1 0 0 4.134227961158E-1 -3.00369243425E-1 0 6.666666666667E-2 0 0
TRAC 0 1 0 0 4.654425732979E-1 -3.381638238452E-1 0 6.666666666667E-2 0 0
TRAC 0 1 0 0 5.147309483848E-1 -3.739739244821E-1 0 6.666666666667E-2 0 0
TRAC 0 1 0 0 5.609986775928E-1 -4.07589397426E-1 0 6.666666666667E-2 0 0
TRAC 0 1 0 0 6.039742434894E-1 -4.388129737149E-1 0 6.666666666667E-2 0 0
TRAC 0 1 0 0 6.434054483654E-1 -4.674614209879E-1 0 6.666666666667E-2 0 0
TRAC 0 1 0 0 6.790608942315E-1 -4.933666187645E-1 0 6.666666666667E-2 0 0
TRAC 0 1 0 0 7.107313407535E-1 -5.163765450437E-1 0 6.666666666667E-2 0 0
TRAC 0 1 0 0 7.382309331581E-1 -5.363561684285E-1 0 6.666666666667E-2 0 0
TRAC 0 1 0 0 7.613982929023E-1 -5.531882405442E-1 0 6.666666666667E-2 0 0
TRAC 0 1 0 0 7.80097464707E-1 -5.667739840988E-1 0 6.666666666667E-2 0 0
TRAC 0 1 0 0 7.942187143967E-1 -5.77033672547E-1 0 6.666666666667E-2 0 0
TRAC 0 1 0 0 8.036791728632E-1 -5.839070979573E-1 0 6.666666666667E-2 0 0
TRAC 0 1 0 0 8.084233223743E-1 -5.873539243363E-1 0 6.666666666667E-2 0 0
TRAC 0 1 0 0 2.365502003318E-2 -7.280266572767E-2 0 6.666666666667E-2 0 0
TRAC 0 1 0 0 4.71712230028E-2 -1.451780964642E-1 0 6.666666666667E-2 0 0
TRAC 0 1 0 0 7.041060647903E-2 -2.16701564403E-1 0 6.666666666667E-2 0 0
TRAC 0 1 0 0 9.32367925189E-2 -2.869533413944E-1 0 6.666666666667E-2 0 0
TRAC 0 1 0 0 1.155158279863E-1 -3.555211620765E-1 0 6.666666666667E-2 0 0
TRAC 0 1 0 0 1.371169706422E-1 -4.220026432128E-1 0 6.666666666667E-2 0 0
TRAC 0 1 0 0 1.579134563922E-1 -4.860076450367E-1 0 6.666666666667E-2 0 0
TRAC 0 1 0 0 1.777832431886E-1 -5.471605607471E-1 0 6.666666666667E-2 0 0
TRAC 0 1 0 0 1.966097272215E-1 -6.051025207182E-1 0 6.666666666667E-2 0 0
TRAC 0 1 0 0 2.142824271967E-1 -6.594934984893E-1 0 6.666666666667E-2 0 0
TRAC 0 1 0 0 2.306976326835E-1 -7.100143061752E-1 0 6.666666666667E-2 0 0
TRAC 0 1 0 0 2.457590127287E-1 -7.563684675877E-1 0 6.666666666667E-2 0 0
TRAC 0 1 0 0 2.593781811655E-1 -7.982839580756E-1 0 6.666666666667E-2 0 0
TRAC 0 1 0 0 2.714752152981E-1 -8.35514800874E-1 0 6.666666666667E-2 0 0
TRAC 0 1 0 0 2.819791249199E-1 -8.678425105929E-1 0 6.666666666667E-2 0 0
TRAC 0 1 0 0 2.908282689125E-1 -8.950773753773E-1 0 6.666666666667E-2 0 0
TRAC 0 1 0 0 2.979707169805E-1 -9.170595702111E-1 0 6.666666666667E-2 0 0
TRAC 0 1 0 0 3.033645543983E-1 -9.336600948342E-1 0 6.666666666667E-2 0 0
TRAC 0 1 0 0 3.069781279833E-1 -9.447815307672E-1 0 6.666666666667E-2 0 0
TRAC 0 1 0 0 3.087902318489E-1 -9.503586130017E-1 0 6.666666666667E-2 0 0
TRAC 0 1 0 0 -2.365502003318E-2 -7.280266572767E-2 0 6.666666666667E-2 0 0
TRAC 0 1 0 0 -4.71712230028E-2 -1.451780964642E-1 0 6.666666666667E-2 0 0
TRAC 0 1 0 0 -7.041060647903E-2 -2.16701564403E-1 0 6.666666666667E-2 0 0
TRAC 0 1 0 0 -9.32367925189E-2 -2.869533413944E-1 0 6.666666666667E-2 0 0
TRAC 0 1 0 0 -1.155158279863E-1 -3.555211620765E-1 0 6.666666666667E-2 0 0
TRAC 0 1 0 0 -1.371169706422E-1 -4.220026432128E-1 0 6.666666666667E-2 0 0
TRAC 0 1 0 0 -1.579134563922E-1 -4.860076450367E-1 0 6.666666666667E-2 0 0
TRAC 0 1 0 0 -1.777832431886E-1 -5.471605607471E-1 0 6.666666666667E-2 0 0
TRAC 0 1 0 0 -1.966097272215E-1 -6.051025207182E-1 0 6.666666666667E-2 0 0
TRAC 0 1 0 0 -2.142824271967E-1 -6.594934984893E-1 0 6.666666666667E-2 0 0
TRAC 0 1 0 0 -2.306976326835E-1 -7.100143061752E-1 0 6.666666666667E-2 0 0
TRAC 0 1 0 0 -2.457590127287E-1 -7.563684675877E-1 0 6.666666666667E-2 0 0
TRAC 0 1 0 0 -2.593781811655E-1 -7.982839580756E-1 0 6.666666666667E-2 0 0
TRAC 0 1 0 0 -2.714752152981E-1 -8.35514800874E-1 0 6.666666666667E-2 0 0
TRAC 0 1 0 0 -2.819791249199E-1 -8.678425105929E-1 0 6.666666666667E-2 0 0
TRAC 0 1 0 0 -2.908282689125E-1 -8.950773753773E-1 0 6.666666666667E-2 0 0
TRAC 0 1 0 0 -2.979707169805E-1 -9.170595702111E-1 0 6.666666666667E-2 0 0
TRAC 0 1 0 0 -3.033645543983E-1 -9.336600948342E-1 0 6.666666666667E-2 0 0
TRAC 0 1 0 0 -3.069781279833E-1 -9.447815307672E-1 0 6.666666666667E-2 0 0
TRAC 0 1 0 0 -3.087902318489E-1 -9.503586130017E-1 0 6.666666666667E-2 0 0
TRAC 0 1 0 0 -6.192964645143E-2 -4.49945218913E-2 0 6.666666666667E-2 0 0
TRAC 0 1 0 0 -1.234958651122E-1 -8.972499803686E-2 0 6.666666666667E-2 0 0
TRAC 0 1 0 0 -1.843373609306E-1 -1.339289322164E-1 0 6.666666666667E-2 0 0
TRAC 0 1 0 0 -2.440970918165E-1 -1.773469181671E-1 0 6.666666666667E-2 0 0
TRAC 0 1 0 0 -3.024243639067E-1 -2.197241618832E-1 0 6.666666666667E-2 0 0
TRAC 0 1 0 0 -3.589768895757E-1 -2.608119768478E-1 0 6.666666666667E-2 0 0
TRAC 0 1 0 0 -4.134227961158E-1 -3.00369243425E-1 0 6.666666666667E-2 0 0
TRAC 0 1 0 0 -4.654425732979E-1 -3.381638238452E-1 0 6.666666666667E-2 0 0
TRAC 0 1 0 0 -5.147309483848E-1 -3.739739244821E-1 0 6.666666666667E-2 0 0
TRAC 0 1 0 0 -5.609986775928E-1 -4.07589397426E-1 0 6.666666666667E-2 0 0
TRAC 0 1 0 0 -6.039742434894E-1 -4.388129737149E-1 0 6.666666666667E-2 0 0
TRAC 0 1 0 0 -6.434054483654E-1 -4.674614209879E-1 0 6.666666666667E-2 0 0
TRAC 0 1 0 0 -6.790608942315E-1 -4.933666187645E-1 0 6.666666666667E-2 0 0
TRAC 0 1 0 0 -7.107313407535E-1 -5.163765450437E-1 0 6.666666666667E-2 0 0
TRAC 0 1 0 0 -7.382309331581E-1 -5.363561684285E-1 0 6.666666666667E-2 0 0
TRAC 0 1 0 0 -7.613982929023E-1 -5.531882405442E-1 0 6.666666666667E-2 0 0
TRAC 0 1 0 0 -7.80097464707E-1 -5.667739840988E-1 0 6.666666666667E-2 0 0
TRAC 0 1 0 0 -7.942187143967E-1 -5.77033672547E-1 0 6.666666666667E-2 0 0
TRAC 0 1 0 0 -8.036791728632E-1 -5.839070979573E-1 0 6.666666666667E-2 0 0
TRAC 0 1 0 0 -8.084233223743E-1 -5.873539243363E-1 0 6.666666666667E-2 0 0
TRAC 0 1 0 0 -7.65492528365E-2 5.861481466721E-17 0 6.666666666667E-2 0 0
TRAC 0 1 0 0 -1.526492842189E-1 1.168856542948E-16 0 6.666666666667E-2 0 0
TRAC 0 1 0 0 -2.278535089031E-1 1.744705624254E-16 0 6.666666666667E-2 0 0
TRAC 0 1 0 0 -3.017205985952E-1 2.310316079206E-16 0 6.666666666667E-2 0 0
TRAC 0 1 0 0 -3.738170718408E-1 2.862368680748E-16 0 6.666666666667E-2 0 0
TRAC 0 1 0 0 -4.43719837867E-1 3.397623764701E-16 0 6.666666666667E-2 0 0
TRAC 0 1 0 0 -5.110186794471E-1 3.912940241396E-16 0 6.666666666667E-2 0 0
TRAC 0 1 0 0 -5.753186602186E-1 4.405294028843E-16 0 6.666666666667E-2 0 0
TRAC 0 1 0 0 -6.362424423266E-1 4.871795799241E-16 0 6.666666666667E-2 0 0
TRAC 0 1 0 0 -6.934325007922E-1 5.309707934704E-16 0 6.666666666667E-2 0 0
TRAC 0 1 0 0 -7.46553221612E-1 5.716460592693E-16 0 6.666666666667E-2 0 0
TRAC 0 1 0 0 -7.952928712734E-1 6.089666786874E-16 0 6.666666666667E-2 0 0
TRAC 0 1 0 0 -8.393654261319E-1 6.427136394901E-16 0 6.666666666667E-2 0 0
TRAC 0 1 0 0 -8.785122509109E-1 6.726889010923E-16 0 6.666666666667E-2 0 0
TRAC 0 1 0 0 -9.125036164766E-1 6.9871655674E-16 0 6.666666666667E-2 0 0
TRAC 0 1 0 0 -9.411400479796E-1 7.206438658002E-16 0 6.666666666667E-2 0 0
TRAC 0 1 0 0 -9.642534954531E-1 7.383421501046E-16 0 6.666666666667E-2 0 0
TRAC 0 1 0 0 -9.817083199969E-1 7.517075490832E-16 0 6.666666666667E-2 0 0
TRAC 0 1 0 0 -9.934020897597E-1 7.606616292605E-16 0 6.666666666667E-2 0 0
TRAC 0 1 0 0 -9.992661810508E-1 7.651518445335E-16 0 6.666666666667E-2 0 0
TRAC 0 1 0 0 -6.192964645143E-2 4.49945218913E-2 0 6.666666666667E-2 0 0
TRAC 0 1 0 0 -1.234958651122E-1 8.972499803686E-2 0 6.666666666667E-2 0 0
TRAC 0 1 0 0 -1.843373609306E-1 1.339289322164E-1 0 6.666666666667E-2 0 0
TRAC 0 1 0 0 -2.440970918165E-1 1.773469181671E-1 0 6.666666666667E-2 0 0
TRAC 0 1 0 0 -3.024243639067E-1 2.197241618832E-1 0 6.666666666667E-2 0 0
TRAC 0 1 0 0 -3.589768895757E-1 2.608119768478E-1 0 6.666666666667E-2 0 0
TRAC 0 1 0 0 -4.134227961158E-1 3.00369243425E-1 0 6.666666666667E-2 0 0
TRAC 0 1 0 0 -4.654425732979E-1 3.381638238452E-1 0 6.666666666667E-2 0 0
TRAC 0 1 0 0 -5.147309483848E-1 3.739739244821E-1 0 6.666666666667E-2 0 0
TRAC 0 1 0 0 -5.609986775928E-1 4.07589397426E-1 0 6.666666666667E-2 0 0
TRAC 0 1 0 0 -6.039742434894E-1 4.388129737149E-1 0 6.666666666667E-2 0 0
TRAC 0 1 0 0 -6.434054483654E-1 4.674614209879E-1 0 6.666666666667E-2 0 0
TRAC 0 1 0 0 -6.790608942315E-1 4.933666187645E-1 0 6.666666666667E-2 0 0
TRAC 0 1 0 0 -7.107313407535E-1 5.163765450437E-1 0 6.666666666667E-2 0 0
TRAC 0 1 0 0 -7.382309331581E-1 5.363561684285E-1 0 6.666666666667E-2 0 0
TRAC 0 1 0 0 -7.613982929023E-1 5.531882405442E-1 0 6.666666666667E-2 0 0
TRAC 0 1 0 0 -7.80097464707E-1 5.667739840988E-1 0 6.666666666667E-2 0 0
TRAC 0 1 0 0 -7.942187143967E-1 5.77033672547E-1 0 6.666666666667E-2 0 0
TRAC 0 1 0 0 -8.036791728632E-1 5.839070979573E-1 0 6.666666666667E-2 0 0
TRAC 0 1 0 0 -8.084233223743E-1 5.873539243363E-1 0 6.666666666667E-2 0 0
TRAC 0 1 0 0 -2.365502003318E-2 7.280266572767E-2 0 6.666666666667E-2 0 0
TRAC 0 1 0 0 -4.71712230028E-2 1.451780964642E-1 0 6.666666666667E-2 0 0
TRAC 0 1 0 0 -7.041060647903E-2 2.16701564403E-1 0 6.666666666667E-2 0 0
TRAC 0 1 0 0 -9.32367925189E-2 2.869533413944E-1 0 6.666666666667E-2 0 0
TRAC 0 1 0 0 -1.155158279863E-1 3.555211620765E-1 0 6.666666666667E-2 0 0
TRAC 0 1 0 0 -1.371169706422E-1 4.220026432128E-1 0 6.666666666667E-2 0 0
TRAC 0 1 0 0 -1.579134563922E-1 4.860076450367E-1 0 6.666666666667E-2 0 0
TRAC 0 1 0 0 -1.777832431886E-1 5.471605607471E-1 0 6.666666666667E-2 0 0
TRAC 0 1 0 0 -1.966097272215E-1 6.051025207182E-1 0 6.666666666667E-2 0 0
TRAC 0 1 0 0 -2.142824271967E-1 6.594934984893E-1 0 6.666666666667E-2 0 0
TRAC 0 1 0 0 -2.306976326835E-1 7.100143061752E-1 0 6.666666666667E-2 0 0
TRAC 0 1 0 0 -2.457590127287E-1 7.563684675877E-1 0 6.666666666667E-2 0 0
TRAC 0 1 0 0 -2.593781811655E-1 7.982839580756E-1 0 6.666666666667E-2 0 0
TRAC 0 1 0 0 -2.714752152981E-1 8.35514800874E-1 0 6.666666666667E-2 0 0
TRAC 0 1 0 0 -2.819791249199E-1 8.678425105929E-1 0 6.666666666667E-2 0 0
TRAC 0 1 0 0 -2.908282689125E-1 8.950773753773E-1 0 6.666666666667E-2 0 0
TRAC 0 1 0 0 -2.979707169805E-1 9.170595702111E-1 0 6.666666666667E-2 0 0
TRAC 0 1 0 0 -3.033645543983E-1 9.336600948342E-1 0 6.666666666667E-2 0 0
TRAC 0 1 0 0 -3.069781279833E-1 9.447815307672E-1 0 6.666666666667E-2 0 0
TRAC 0 1 0 0 -3.087902318489E-1 9.503586130017E-1 0 6.666666666667E-2 0 0
TRAC 0 2 0 0 2.365502003318E-2 7.280266572767E-2 0 6.666666666667E-2 0 0
TRAC 0 2 0 0 4.71712230028E-2 1.451780964642E-1 0 6.666666666667E-2 0 0
TRAC 0 2 0 0 7.041060647903E-2 2.16701564403E-1 0 6.666666666667E-2 0 0
TRAC 0 2 0 0 9.32367925189E-2 2.869533413944E-1 0 6.666666666667E-2 0 0
TRAC 0 2 0 0 1.155158279863E-1 3.555211620765E-1 0 6.666666666667E-2 0 0
TRAC 0 2 0 0 1.371169706422E-1 4.220026432128E-1 0 6.666666666667E-2 0 0
TRAC 0 2 0 0 1.579134563922E-1 4.860076450367E-1 0 6.666666666667E-2 0 0
TRAC 0 2 0 0 1.777832431886E-1 5.471605607471E-1 0 6.666666666667E-2 0 0
TRAC 0 2 0 0 1.966097272215E-1 6.051025207182E-1 0 6.666666666667E-2 0 0
TRAC 0 2 0 0 2.142824271967E-1 6.594934984893E-1 0 6.666666666667E-2 0 0
TRAC 0 2 0 0 2.306976326835E-1 7.100143061752E-1 0 6.666666666667E-2 0 0
TRAC 0 2 0 0 2.457590127287E-1 7.563684675877E-1 0 6.666666666667E-2 0 0
TRAC 0 2 0 0 2.593781811655E-1 7.982839580756E-1 0 6.666666666667E-2 0 0
TRAC 0 2 0 0 2.714752152981E-1 8.35514800874E-1 0 6.666666666667E-2 0 0
TRAC 0 2 0 0 2.819791249199E-1 8.678425105929E-1 0 6.666666666667E-2 0 0
TRAC 0 2 0 0 2.908282689125E-1 8.950773753773E-1 0 6.666666666667E-2 0 0
TRAC 0 2 0 0 2.979707169805E-1 9.170595702111E-1 0 6.666666666667E-2 0 0
TRAC 0 2 0 0 3.033645543983E-1 9.336600948342E-1 0 6.666666666667E-2 0 0
TRAC 0 2 0 0 3.069781279833E-1 9.447815307672E-1 0 6.666666666667E-2 0 0
TRAC 0 2 0 0 3.087902318489E-1 9.503586130017E-1 0 6.666666666667E-2 0 0
TRAC 0 2 0 0 6.192964645143E-2 4.49945218913E-2 0 6.666666666667E-2 0 0
TRAC 0 2 0 0 1.234958651122E-1 8.972499803686E-2 0 6.666666666667E-2 0 0
TRAC 0 2 0 0 1.843373609306E-1 1.339289322164E-1 0 6.666666666667E-2 0 0
TRAC 0 2 0 0 2.440970918165E-1 1.773469181671E-1 0 6.666666666667E-2 0 0
TRAC 0 2 0 0 3.024243639067E-1 2.197241618832E-1 0 6.666666666667E-2 0 0
TRAC 0 2 0 0 3.589768895757E-1 2.608119768478E-1 0 6.666666666667E-2 0 0
TRAC 0 2 0 0 4.134227961158E-1 3.00369243425E-1 0 6.666666666667E-2 0 0
TRAC 0 2 0 0 4.654425732979E-1 3.381638238452E-1 0 6.666666666667E-2 0 0
TRAC 0 2 0 0 5.147309483848E-1 3.739739244821E-1 0 6.666666666667E-2 0 0
TRAC 0 2 0 0 5.609986775928E-1 4.07589397426E-1 0 6.666666666667E-2 0 0
TRAC 0 2 0 0 6.039742434894E-1 4.388129737149E-1 0 6.666666666667E-2 0 0
TRAC 0 2 0 0 6.434054483654E-1 4.674614209879E-1 0 6.666666666667E-2 0 0
TRAC 0 2 0 0 6.790608942315E-1 4.933666187645E-1 0 6.666666666667E-2 0 0
TRAC 0 2 0 0 7.107313407535E-1 5.163765450437E-1 0 6.666666666667E-2 0 0
TRAC 0 2 0 0 7.382309331581E-1 5.363561684285E-1 0 6.666666666667E-2 0 0
TRAC 0 2 0 0 7.613982929023E-1 5.531882405442E-1 0 6.666666666667E-2 0 0
TRAC 0 2 0 0 7.80097464707E-1 5.667739840988E-1 0 6.666666666667E-2 0 0
TRAC 0 2 0 0 7.942187143967E-1 5.77033672547E-1 0 6.666666666667E-2 0 0
TRAC 0 2 0 0 8.036791728632E-1 5.839070979573E-1 0 6.666666666667E-2 0 0
TRAC 0 2 0 0 8.084233223743E-1 5.873539243363E-1 0 6.666666666667E-2 0 0
TRAC 0 2 0 0 7.65492528365E-2 0 0 6.666666666667E-2 0 0
TRAC 0 2 0 0 1.526492842189E-1 0 0 6.666666666667E-2 0 0
TRAC 0 2 0 0 2.278535089031E-1 0 0 6.666666666667E-2 0 0
TRAC 0 2 0 0 3.017205985952E-1 0 0 6.666666666667E-2 0 0
TRAC 0 2 0 0 3.738170718408E-1 0 0 6.666666666667E-2 0 0
TRAC 0 2 0 0 4.43719837867E-1 0 0 6.666666666667E-2 0 0
TRAC 0 2 0 0 5.110186794471E-1 0 0 6.666666666667E-2 0 0
TRAC 0 2 0 0 5.753186602186E-1 0 0 6.666666666667E-2 0 0
TRAC 0 2 0 0 6.362424423266E-1 0 0 6.666666666667E-2 0 0
TRAC 0 2 0 0 6.934325007922E-1 0 0 6.666666666667E-2 0 0
TRAC 0 2 0 0 7.46553221612E-1 0 0 6.666666666667E-2 0 0
TRAC 0 2 0 0 7.952928712734E-1 0 0 6.666666666667E-2 0 0
TRAC 0 2 0 0 8.393654261319E-1 0 0 6.666666666667E-2 0 0
TRAC 0 2 0 0 8.785122509109E-1 0 0 6.666666666667E-2 0 0
TRAC 0 2 0 0 9.125036164766E-1 0 0 6.666666666667E-2 0 0
TRAC 0 2 0 0 9.411400479796E-1 0 0 6.666666666667E-2 0 0
TRAC 0 2 0 0 9.642534954531E-1 0 0 6.666666666667E-2 0 0
TRAC 0 2 0 0 9.817083199969E-1 0 0 6.666666666667E-2 0 0
TRAC 0 2 0 0 9.934020897597E-1 0 0 6.666666666667E-2 0 0
TRAC 0 2 0 0 9.992661810508E-1 0 0 6.666666666667E-2 0 0
TRAC 0 2 0 0 6.192964645143E-2 -4.49945218913E-2 0 6.666666666667E-2 0 0
TRAC 0 2 0 0 1.234958651122E-1 -8.972499803686E-2 0 6.666666666667E-2 0 0
TRAC 0 2 0 0 1.843373609306E-1 -1.339289322164E-1 0 6.666666666667E-2 0 0
TRAC 0 2 0 0 2.440970918165E-1 -1.773469181671E-1 0 6.666666666667E-2 0 0
TRAC 0 2 0 0 3.024243639067E-1 -2.197241618832E-1 0 6.666666666667E-2 0 0
TRAC 0 2 0 0 3.589768895757E-1 -2.608119768478E-1 0 6.666666666667E-2 0 0
TRAC 0 2 0 0 4.134227961158E-1 -3.00369243425E-1 0 6.666666666667E-2 0 0
TRAC 0 2 0 0 4.654425732979E-1 -3.381638238452E-1 0 6.666666666667E-2 0 0
TRAC 0 2 0 0 5.147309483848E-1 -3.739739244821E-1 0 6.666666666667E-2 0 0
TRAC 0 2 0 0 5.609986775928E-1 -4.07589397426E-1 0 6.666666666667E-2 0 0
TRAC 0 2 0 0 6.039742434894E-1 -4.388129737149E-1 0 6.666666666667E-2 0 0
TRAC 0 2 0 0 6.434054483654E-1 -4.674614209879E-1 0 6.666666666667E-2 0 0
TRAC 0 2 0 0 6.790608942315E-1 -4.933666187645E-1 0 6.666666666667E-2 0 0
TRAC 0 2 0 0 7.107313407535E-1 -5.163765450437E-1 0 6.666666666667E-2 0 0
TRAC 0 2 0 0 7.382309331581E-1 -5.363561684285E-1 0 6.666666666667E-2 0 0
TRAC 0 2 0 0 7.613982929023E-1 -5.531882405442E-1 0 6.666666666667E-2 0 0
TRAC 0 2 0 0 7.80097464707E-1 -5.667739840988E-1 0 6.666666666667E-2 0 0
TRAC 0 2 0 0 7.942187143967E-1 -5.77033672547E-1 0 6.666666666667E-2 0 0
TRAC 0 2 0 0 8.036791728632E-1 -5.839070979573E-1 0 6.666666666667E-2 0 0
TRAC 0 2 0 0 8.084233223743E-1 -5.873539243363E-1 0 6.666666666667E-2 0 0
TRAC 0 2 0 0 2.365502003318E-2 -7.280266572767E-2 0 6.666666666667E-2 0 0
TRAC 0 2 0 0 4.71712230028E-2 -1.451780964642E-1 0 6.666666666667E-2 0 0
TRAC 0 2 0 0 7.041060647903E-2 -2.16701564403E-1 0 6.666666666667E-2 0 0
TRAC 0 2 0 0 9.32367925189E-2 -2.869533413944E-1 0 6.666666666667E-2 0 0
TRAC 0 2 0 0 1.155158279863E-1 -3.555211620765E-1 0 6.666666666667E-2 0 0
TRAC 0 2 0 0 1.371169706422E-1 -4.220026432128E-1 0 6.666666666667E-2 0 0
TRAC 0 2 0 0 1.579134563922E-1 -4.860076450367E-1 0 6.666666666667E-2 0 0
TRAC 0 2 0 0 1.777832431886E-1 -5.471605607471E-1 0 6.666666666667E-2 0 0
TRAC 0 2 0 0 1.966097272215E-1 -6.051025207182E-1 0 6.666666666667E-2 0 0
TRAC 0 2 0 0 2.142824271967E-1 -6.594934984893E-1 0 6.666666666667E-2 0 0
TRAC 0 2 0 0 2.306976326835E-1 -7.100143061752E-1 0 6.666666666667E-2 0 0
TRAC 0 2 0 0 2.457590127287E-1 -7.563684675877E-1 0 6.666666666667E-2 0 0
TRAC 0 2 0 0 2.593781811655E-1 -7.982839580756E-1 0 6.666666666667E-2 0 0
TRAC 0 2 0 0 2.714752152981E-1 -8.35514800874E-1 0 6.666666666667E-2 0 0
TRAC 0 2 0 0 2.819791249199E-1 -8.678425105929E-1 0 6.666666666667E-2 0 0
TRAC 0 2 0 0 2.908282689125E-1 -8.950773753773E-1 0 6.666666666667E-2 0 0
TRAC 0 2 0 0 2.979707169805E-1 -9.170595702111E-1 0 6.666666666667E-2 0 0
TRAC 0 2 0 0 3.033645543983E-1 -9.336600948342E-1 0 6.666666666667E-2 0 0
TRAC 0 2 0 0 3.069781279833E-1 -9.447815307672E-1 0 6.666666666667E-2 0 0
TRAC 0 2 0 0 3.087902318489E-1 -9.503586130017E-1 0 6.666666666667E-2 0 0
TRAC 0 2 0 0 -2.365502003318E-2 -7.280266572767E-2 0 6.666666666667E-2 0 0
TRAC 0 2 0 0 -4.71712230028E-2 -1.451780964642E-1 0 6.666666666667E-2 0 2.169418695588E-1
TRAC 0 2 0 0 -7.041060647903E-2 -2.16701564403E-1 0 6.666666666667E-2 0 3.90915741234E-1
TRAC 0 2 0 0 -9.32367925189E-2 -2.869533413944E-1 0 6.666666666667E-2 0 4.874639560909E-1
TRAC 0 2 0 0 -1.155158279863E-1 -3.555211620765E-1 0 6.666666666667E-2 0 4.338837391176E-1
TRAC 0 2 0 0 -1.371169706422E-1 -4.220026432128E-1 0 6.666666666667E-2 0 7.81831482468E-1
TRAC 0 2 0 0 -1.579134563922E-1 -4.860076450367E-1 0 6.666666666667E-2 0 9.749279121818E-1
TRAC 0 2 0 0 -1.777832431886E-1 -5.471605607471E-1 0 6.666666666667E-2 0 2.169418695588E-1
TRAC 0 2 0 0 -1.966097272215E-1 -6.051025207182E-1 0 6.666666666667E-2 0 3.90915741234E-1
TRAC 0 2 0 0 -2.142824271967E-1 -6.594934984893E-1 0 6.666666666667E-2 0 4.874639560909E-1
TRAC 0 2 0 0 -2.306976326835E-1 -7.100143061752E-1 0 6.666666666667E-2 0 -2.169418695588E-1
TRAC 0 2 0 0 -2.457590127287E-1 -7.563684675877E-1 0 6.666666666667E-2 0 -3.90915741234E-1
TRAC 0 2 0 0 -2.593781811655E-1 -7.982839580756E-1 0 6.666666666667E-2 0 -4.874639560909E-1
TRAC 0 2 0 0 -2.714752152981E-1 -8.35514800874E-1 0 6.666666666667E-2 0 -4.338837391176E-1
TRAC 0 2 0 0 -2.819791249199E-1 -8.678425105929E-1 0 6.666666666667E-2 0 -7.81831482468E-1
TRAC 0 2 0 0 -2.908282689125E-1 -8.950773753773E-1 0 6.666666666667E-2 0 -9.749279121818E-1
TRAC 0 2 0 0 -2.979707169805E-1 -9.170595702111E-1 0 6.666666666667E-2 0 -2.169418695588E-1
TRAC 0 2 0 0 -3.033645543983E-1 -9.336600948342E-1 0 6.666666666667E-2 0 -3.90915741234E-1
TRAC 0 2 0 0 -3.069781279833E-1 -9.447815307672E-1 0 6.666666666667E-2 0 -4.874639560909E-1
TRAC 0 2 0 0 -3.087902318489E-1 -9.503586130017E-1 0 6.666666666667E-2 0 2.169418695588E-1
TRAC 0 2 0 0 -6.192964645143E-2 -4.49945218913E-2 0 6.666666666667E-2 0 3.90915741234E-1
TRAC 0 2 0 0 -1.234958651122E-1 -8.972499803686E-2 0 6.666666666667E-2 0 4.874639560909E-1
TRAC 0 2 0 0 -1.843373609306E-1 -1.339289322164E-1 0 6.666666666667E-2 0 4.338837391176E-1
TRAC 0 2 0 0 -2.440970918165E-1 -1.773469181671E-1 0 6.666666666667E-2 0 7.81831482468E-1
TRAC 0 2 0 0 -3.024243639067E-1 -2.197241618832E-1 0 6.666666666667E-2 0 9.749279121818E-1
TRAC 0 2 0 0 -3.589768895757E-1 -2.608119768478E-1 0 6.666666666667E-2 0 2.169418695588E-1
TRAC 0 2 0 0 -4.134227961158E-1 -3.00369243425E-1 0 6.666666666667E-2 0 3.90915741234E-1
TRAC 0 2 0 0 -4.654425732979E-1 -3.381638238452E-1 0 6.666666666667E-2 0 4.874639560909E-1
TRAC 0 2 0 0 -5.147309483848E-1 -3.739739244821E-1 0 6.666666666667E-2 0 -2.169418695588E-1
TRAC 0 2 0 0 -5.609986775928E-1 -4.07589397426E-1 0 6.666666666667E-2 0 -3.90915741234E-1
TRAC 0 2 0 0 -6.039742434894E-1 -4.388129737149E-1 0 6.666666666667E-2 0 -4.874639560909E-1
TRAC 0 2 0 0 -6.434054483654E-1 -4.674614209879E-1 0 6.666666666667E-2 0 -4.338837391176E-1
TRAC 0 2 0 0 -6.790608942315E-1 -4.933666187645E-1 0 6.666666666667E-2 0 -7.81831482468E-1
TRAC 0 2 0 0 -7.107313407535E-1 -5.163765450437E-1 0 6.666666666667E-2 0 -9.749279121818E-1
TRAC 0 2 0 0 -7.382309331581E-1 -5.363561684285E-1 0 6.666666666667E-2 0 -2.169418695588E-1
TRAC 0 2 0 0 -7.613982929023E-1 -5.531882405442E-1 0 6.666666666667E-2 0 -3.90915741234E-1
TRAC 0 2 0 0 -7.80097464707E-1 -5.667739840988E-1 0 6.666666666667E-2 0 -4.874639560909E-1
TRAC 0 2 0 0 -7.942187143967E-1 -5.77033672547E-1 0 6.666666666667E-2 0 2.169418695588E-1
TRAC 0 2 0 0 -8.036791728632E-1 -5.839070979573E-1 0 6.666666666667E-2 0 3.90915741234E-1
TRAC 0 2 0 0 -8.084233223743E-1 -5.873539243363E-1 0 6.666666666667E-2 0 4.874639560909E-1
TRAC 0 2 0 0 -7.65492528365E-2 5.861481466721E-17 0 6.666666666667E-2 0 4.338837391176E-1